*KEYWORD_ID
DED
*PARAMETER
Rboltz    5.6704E-14
*PARAMETER
Rambient       300.0
*PARAMETER
Rabszero         0.0
*TOOL_FILE
toolpath.crs
*GAUSS_LASER
400 1.12 0.4
*SCALAR_OUT
temp
solid_rate
theta_hist
nid_true
*CONTROL_TERMINATION
$$  ENDTIM    ENDCYC     DTMIN    ENDENG    ENDMAS
   43
*CONTROL_TIMESTEP
$$  DTINIT    TSSFAC      ISDO    TSLIMT     DT2MS      LCTM     EROD       E     MSIST
    2.0E-3       1.0
*CONTROL_SOLUTION
$$    SOLN
         0
*DATABASE_NODOUT
$$      DT    BINARY      LCUR      IOPT      DTHF     BINHF
    10.000         0
*MAT_THERMAL_ISOTROPIC_TD
$HMNAME MATS       1MATT1_1
         1   0.0081 1533  1609   250
materials/IN718_cp.txt
materials/IN718_cond.txt
*MAT_THERMAL_ISOTROPIC_TD
$HMNAME MATS       2MATT1_2
         2   0.00787  1693  1733   270
materials/1018_cp.txt
materials/1018_cond.txt
*PART
$HWCOLOR COMPS       1       3
Substrate
         1         0         1
$HWCOLOR COMPS       2       4
Build
         2         0         2
*LOAD_NODE_SET
$HMNAME LOADCOLS       1LoadNode_1
         3         1               300.0
$	 moving flux
         2         5                 0.0
$	 Radiation
         2         4                 0.2
$	 convection
         2         3             0.00005
*INITIAL_TEMPERATURE_SET
$HMNAME LOADCOLS       1InitialTemp_1
$HWCOLOR LOADCOLS       1       3
         1     300.0
*DEFINE_CURVE
         1                 1.0       1.0
          0.01785714       2798.00000000
          0.01785714       2789.00000000
          0.01785714       2791.00000000
          0.01785714       2796.00000000
          0.03571429       2792.00000000
          0.03571429       2795.00000000
          0.03571429       2788.00000000
          0.03571429       2799.00000000
          0.05357143       3350.00000000
          0.05357143       2227.00000000
          0.05357143       2233.00000000
          0.05357143       2234.00000000
          0.05357143       2240.00000000
          0.05357143       3357.00000000
          0.07142857       3358.00000000
          0.07142857       3351.00000000
          0.07142857       3349.00000000
          0.07142857       3356.00000000
          0.08928571       3352.00000000
$ ... 68807 like lines cut
*NODE
$#   nid               x               y               z      tc      rc
       1      -23.000000       -1.250000       30.000000       0       0
       2      -23.000000        1.250000       30.000000       0       0
       3      -23.000000        1.250000        0.000000       0       0
       4      -23.000000       -1.250000        0.000000       0       0
       5       23.000000        1.250000       30.000000       0       0
       6       23.000000        1.250000        0.000000       0       0
       7       23.000000       -1.250000        0.000000       0       0
       8       23.000000       -1.250000       30.000000       0       0
       9      -30.000000       10.000000        0.000000       0       0
      10      -30.000000      -10.000000        0.000000       0       0
      11       30.000000      -10.000000        0.000000       0       0
      12       30.000000       10.000000        0.000000       0       0
      13       30.000000      -10.000000      -10.000000       0       0
      14      -30.000000      -10.000000      -10.000000       0       0
      15      -30.000000       10.000000      -10.000000       0       0
      16       30.000000       10.000000      -10.000000       0       0
      17      -23.000000       -0.892857       30.000000       0       0
      18      -23.000000       -0.535714       30.000000       0       0
      19      -23.000000       -0.178571       30.000000       0       0
      20      -23.000000        0.178571       30.000000       0       0
$ ... 96854 like lines cut
*ELEMENT_SOLID
$#   eid     pid      n1      n2      n3      n4      n5      n6      n7      n8
       1       1     600   21237   27691    1961       1      17    1013     186
       2       1   21237   21238   27692   27691      17      18    1014    1013
       3       1   21238   21239   27693   27692      18      19    1015    1014
       4       1   21239   21240   27694   27693      19      20    1016    1015
       5       1   21240   21241   27695   27694      20      21    1017    1016
       6       1   21241   21242   27696   27695      21      22    1018    1017
       7       1   21242     723   11599   27696      22       2      23    1018
       8       1    1961   27691   27697    1962     186    1013    1019     185
       9       1   27691   27692   27698   27697    1013    1014    1020    1019
      10       1   27692   27693   27699   27698    1014    1015    1021    1020
      11       1   27693   27694   27700   27699    1015    1016    1022    1021
      12       1   27694   27695   27701   27700    1016    1017    1023    1022
      13       1   27695   27696   27702   27701    1017    1018    1024    1023
      14       1   27696   11599   11600   27702    1018      23      24    1024
      15       1    1962   27697   27703    1963     185    1019    1025     184
      16       1   27697   27698   27704   27703    1019    1020    1026    1025
      17       1   27698   27699   27705   27704    1020    1021    1027    1026
      18       1   27699   27700   27706   27705    1021    1022    1028    1027
      19       1   27700   27701   27707   27706    1022    1023    1029    1028
      20       1   27701   27702   27708   27707    1023    1024    1030    1029
$ ... 83250 like lines cut
*SET_NODE_LIST
$#     sid       da1       da2       da3       da4    solver
         1
$#    nid1      nid2      nid3      nid4      nid5      nid6      nid7      nid8
         1         2         3         4         5         6         7         8
         9        10        11        12        13        14        15        16
        17        18        19        20        21        22        23        24
        25        26        27        28        29        30        31        32
        33        34        35        36        37        38        39        40
        41        42        43        44        45        46        47        48
        49        50        51        52        53        54        55        56
        57        58        59        60        61        62        63        64
        65        66        67        68        69        70        71        72
        73        74        75        76        77        78        79        80
        81        82        83        84        85        86        87        88
        89        90        91        92        93        94        95        96
        97        98        99       100       101       102       103       104
       105       106       107       108       109       110       111       112
       113       114       115       116       117       118       119       120
       121       122       123       124       125       126       127       128
       129       130       131       132       133       134       135       136
       137       138       139       140       141       142       143       144
       145       146       147       148       149       150       151       152
       153       154       155       156       157       158       159       160
$ ... 12090 like lines cut
*SET_NODE_LIST
$#     sid       da1       da2       da3       da4    solver
         2
$#    nid1      nid2      nid3      nid4      nid5      nid6      nid7      nid8
         1         2         3         4         5         6         7         8
         9        10        11        12        17        18        19        20
        21        22        23        24        25        26        27        28
        29        30        31        32        33        34        35        36
        37        38        39        40        41        42        43        44
        45        46        47        48        49        50        51        52
        53        54        55        56        57        58        59        60
        61        62        63        64        65        66        67        68
        69        70        71        72        73        74        75        76
        77        78        79        80        81        82        83        84
        85        86        87        88        89        90        91        92
        93        94        95        96        97        98        99       100
       101       102       103       104       105       106       107       108
       109       110       111       112       113       114       115       116
       117       118       119       120       121       122       123       124
       125       126       127       128       129       130       131       132
       133       134       135       136       137       138       139       140
       141       142       143       144       145       146       147       148
       149       150       151       152       153       154       155       156
       157       158       159       160       161       162       163       164
$ ... 10265 like lines cut
*SET_NODE_LIST
$#     sid       da1       da2       da3       da4    solver
         3
$#    nid1      nid2      nid3      nid4      nid5      nid6      nid7      nid8
        13        14        15        16       937       938       939       940
       941       942       943       944       945       946       947       948
       949       950       951       952       953       954       955       956
       957       958       959       960       961       962       963       964
       965       966       967       968       969       970       971       972
       973       974       975       976       977       978       979       980
       981       982       983       984       985       986       987       988
       989       990       991       992       993       994       995       996
       997       998       999      1000      1001      1002      1003      1004
      1005      1006      1007      1008      1009      1010      1011      1012
     24548     24549     24550     24551     24552     24553     24554     24555
     24556     24557     24558     24559     24560     24561     24562     24563
     24564     24565     24566     24567     24568     24569     24570     24571
     24572     24573     24574     24575     24576     24577     24578     24579
     24580     24581     24582     24583     24584     24585     24586     24587
     24588     24589     24590     24591     24592     24593     24594     24595
     24596     24597     24598     24599     24600     24601     24602     24603
     24604     24605     24606     24607     24608     24609     24610     24611
     24612     24613     24614     24615     24616     24617     24618     24619
     24620     24621     24622     24623     24624     24625     24626     24627
$ ... 345 like lines cut
*SET_SOLID
$#     sid    solver
         1MECH
$#      k1        k2        k3        k4        k5        k6        k7        k8
         1         2         3         4         5         6         7         8
         9        10        11        12        13        14        15        16
        17        18        19        20        21        22        23        24
        25        26        27        28        29        30        31        32
        33        34        35        36        37        38        39        40
        41        42        43        44        45        46        47        48
        49        50        51        52        53        54        55        56
        57        58        59        60        61        62        63        64
        65        66        67        68        69        70        71        72
        73        74        75        76        77        78        79        80
        81        82        83        84        85        86        87        88
        89        90        91        92        93        94        95        96
        97        98        99       100       101       102       103       104
       105       106       107       108       109       110       111       112
       113       114       115       116       117       118       119       120
       121       122       123       124       125       126       127       128
       129       130       131       132       133       134       135       136
       137       138       139       140       141       142       143       144
       145       146       147       148       149       150       151       152
       153       154       155       156       157       158       159       160
$ ... 8590 like lines cut

*SET_SOLID
$#     sid    solver
         2MECH
$#      k1        k2        k3        k4        k5        k6        k7        k8
     68881     68882     68883     68884     68885     68886     68887     68888
     68889     68890     68891     68892     68893     68894     68895     68896
     68897     68898     68899     68900     68901     68902     68903     68904
     68905     68906     68907     68908     68909     68910     68911     68912
     68913     68914     68915     68916     68917     68918     68919     68920
     68921     68922     68923     68924     68925     68926     68927     68928
     68929     68930     68931     68932     68933     68934     68935     68936
     68937     68938     68939     68940     68941     68942     68943     68944
     68945     68946     68947     68948     68949     68950     68951     68952
     68953     68954     68955     68956     68957     68958     68959     68960
     68961     68962     68963     68964     68965     68966     68967     68968
     68969     68970     68971     68972     68973     68974     68975     68976
     68977     68978     68979     68980     68981     68982     68983     68984
     68985     68986     68987     68988     68989     68990     68991     68992
     68993     68994     68995     68996     68997     68998     68999     69000
     69001     69002     69003     69004     69005     69006     69007     69008
     69009     69010     69011     69012     69013     69014     69015     69016
     69017     69018     69019     69020     69021     69022     69023     69024
     69025     69026     69027     69028     69029     69030     69031     69032
     69033     69034     69035     69036     69037     69038     69039     69040
$ ... 1779 like lines cut
*END